Output_case1_3p/output_voltage_1.csv
# Output_case1_3p\output_voltage_1.csv run at 2000-01-01 00:01:00 EST on 963 nodes
node_name,voltA_mag,voltA_angle,voltB_mag,voltB_angle,voltC_mag,voltC_angle
SourceBus,6668.395609,0.000000,6668.395609,4.188790,6668.395609,2.094395
Bus1,252.167923,-0.523750,252.167923,3.665040,252.167923,1.570645
Bus2,252.164800,-0.523747,252.164800,3.665043,252.164800,1.570648
Bus3,252.164472,-0.523747,252.164472,3.665043,252.164472,1.570648
Bus4,252.164166,-0.523747,252.164166,3.665043,252.164166,1.570648
Bus5,252.163898,-0.523747,252.163898,3.665044,252.163898,1.570648
Bus6,252.163477,-0.523746,252.163477,3.665044,252.163477,1.570649
Bus7,252.134787,-0.523720,252.134787,3.665070,252.134787,1.570675
Bus8,252.133502,-0.523719,252.133502,3.665071,252.133502,1.570676
Bus9,252.132432,-0.523718,252.132432,3.665072,252.132432,1.570677
Bus10,252.131494,-0.523717,252.131494,3.665073,252.131494,1.570678
Bus11,252.130794,-0.523717,252.130794,3.665073,252.130794,1.570678
Bus12,252.130136,-0.523716,252.130136,3.665074,252.130136,1.570679
Bus13,252.129732,-0.523716,252.129732,3.665074,252.129732,1.570679
Bus14,252.128725,-0.523715,252.128725,3.665075,252.128725,1.570680
Bus15,252.120572,-0.523708,252.120572,3.665083,252.120572,1.570688
Bus16,252.120572,-0.523708,252.120572,3.665083,252.120572,1.570688
Bus17,252.110685,-0.523699,252.110685,3.665092,252.110685,1.570696
Bus18,252.120572,-0.523708,252.120572,3.665083,252.120572,1.570688
Bus19,252.110004,-0.523698,252.110004,3.665092,252.110004,1.570697
Bus20,252.120572,-0.523708,252.120572,3.665083,252.120572,1.570688
Bus21,252.109241,-0.523697,252.109241,3.665093,252.109241,1.570698
Bus22,252.120572,-0.523708,252.120572,3.665083,252.120572,1.570688
Bus23,252.107997,-0.523696,252.107997,3.665094,252.107997,1.570699
Bus24,252.120572,-0.523708,252.120572,3.665083,252.120572,1.570688
Bus25,252.105734,-0.523694,252.105734,3.665096,252.105734,1.570701
Bus26,252.120572,-0.523708,252.120572,3.665083,252.120572,1.570688
Bus27,252.104188,-0.523693,252.104188,3.665098,252.104188,1.570702
Bus28,252.079177,-0.523670,252.079177,3.665120,252.079177,1.570725
Bus29,252.120572,-0.523708,252.120572,3.665083,252.120572,1.570688
Bus30,252.104105,-0.523693,252.104105,3.665098,252.104105,1.570703
Bus31,252.103855,-0.523692,252.103855,3.665098,252.103855,1.570703
Bus32,252.072107,-0.523664,252.072107,3.665126,252.072107,1.570731
Bus33,252.120572,-0.523708,252.120572,3.665083,252.120572,1.570688
Bus34,252.103914,-0.523692,252.103914,3.665098,252.103914,1.570703
Bus35,252.103843,-0.523692,252.103843,3.665098,252.103843,1.570703
Bus36,252.071186,-0.523663,252.071186,3.665127,252.071186,1.570732
Bus37,252.051618,-0.523645,252.051618,3.665145,252.051618,1.570750
Bus38,252.120572,-0.523708,252.120572,3.665083,252.120572,1.570688
Bus39,252.103827,-0.523692,252.103827,3.665098,252.103827,1.570703
Bus40,252.071154,-0.523663,252.071154,3.665127,252.071154,1.570732
Bus41,252.071040,-0.523663,252.071040,3.665127,252.071040,1.570732
Bus42,252.037401,-0.523632,252.037401,3.665158,252.037401,1.570763
Bus43,252.051618,-0.523645,252.051618,3.665145,252.051618,1.570750
Bus44,252.120572,-0.523708,252.120572,3.665083,252.120572,1.570688
Bus45,252.103806,-0.523692,252.103806,3.665098,252.103806,1.570703
Bus46,252.071140,-0.523663,252.071140,3.665127,252.071140,1.570732
Bus47,252.070687,-0.523662,252.070687,3.665128,252.070687,1.570733
Bus48,252.026657,-0.523623,252.026657,3.665167,252.026657,1.570772
Bus49,252.051618,-0.523645,252.051618,3.665145,252.051618,1.570750
Bus50,252.120572,-0.523708,252.120572,3.665083,252.120572,1.570688
Bus51,252.103755,-0.523692,252.103755,3.665098,252.103755,1.570703
Bus52,252.071125,-0.523663,252.071125,3.665127,252.071125,1.570732
Bus53,252.025108,-0.523621,252.025108,3.665169,252.025108,1.570774
Bus54,252.026657,-0.523623,252.026657,3.665167,252.026657,1.570772
Bus55,252.051618,-0.523645,252.051618,3.665145,252.051618,1.570750
Bus56,252.120572,-0.523708,252.120572,3.665083,252.120572,1.570688
Bus57,252.103712,-0.523692,252.103712,3.665098,252.103712,1.570703
Bus58,252.071110,-0.523663,252.071110,3.665127,252.071110,1.570732
Bus59,252.018091,-0.523615,252.018091,3.665175,252.018091,1.570780
Bus60,252.026657,-0.523623,252.026657,3.665167,252.026657,1.570772
Bus61,252.051618,-0.523645,252.051618,3.665145,252.051618,1.570750
Bus62,252.120572,-0.523708,252.120572,3.665083,252.120572,1.570688
Bus63,252.103504,-0.523692,252.103504,3.665098,252.103504,1.570703
Bus64,252.071102,-0.523663,252.071102,3.665127,252.071102,1.570732
Bus65,252.016742,-0.523614,252.016742,3.665176,252.016742,1.570781
Bus66,252.016434,-0.523613,252.016434,3.665177,252.016434,1.570782
Bus67,252.026657,-0.523623,252.026657,3.665167,252.026657,1.570772
Bus68,252.051618,-0.523645,252.051618,3.665145,252.051618,1.570750
Bus69,252.120572,-0.523708,252.120572,3.665083,252.120572,1.570688
Bus70,252.102767,-0.523691,252.102767,3.665099,252.102767,1.570704
Bus71,252.071084,-0.523663,252.071084,3.665127,252.071084,1.570732
Bus72,252.000801,-0.523599,252.000801,3.665191,252.000801,1.570796
Bus73,252.016153,-0.523613,252.016153,3.665177,252.016153,1.570782
Bus74,252.015906,-0.523613,252.015906,3.665177,252.015906,1.570782
Bus75,252.026657,-0.523623,252.026657,3.665167,252.026657,1.570772
Bus76,252.051618,-0.523645,252.051618,3.665145,252.051618,1.570750
Bus77,252.120572,-0.523708,252.120572,3.665083,252.120572,1.570688
Bus78,252.070998,-0.523663,252.070998,3.665127,252.070998,1.570732
Bus79,251.995245,-0.523594,251.995245,3.665196,251.995245,1.570801
Bus80,252.026657,-0.523623,252.026657,3.665167,252.026657,1.570772
Bus81,252.051618,-0.523645,252.051618,3.665145,252.051618,1.570750
Bus82,252.120572,-0.523708,252.120572,3.665083,252.120572,1.570688
Bus83,252.070673,-0.523662,252.070673,3.665128,252.070673,1.570733
Bus84,251.994032,-0.523593,251.994032,3.665197,251.994032,1.570802
Bus85,252.026657,-0.523623,252.026657,3.665167,252.026657,1.570772
Bus86,252.051618,-0.523645,252.051618,3.665145,252.051618,1.570750
Bus87,252.120572,-0.523708,252.120572,3.665083,252.120572,1.570688
Bus88,251.991573,-0.523591,251.991573,3.665199,251.991573,1.570804
Bus89,252.026657,-0.523623,252.026657,3.665167,252.026657,1.570772
Bus90,252.051618,-0.523645,252.051618,3.665145,252.051618,1.570750
Bus91,252.120572,-0.523708,252.120572,3.665083,252.120572,1.570688
Bus92,251.989255,-0.523589,251.989255,3.665201,251.989255,1.570806
Bus93,252.051618,-0.523645,252.051618,3.665145,252.051618,1.570750
Bus94,252.120572,-0.523708,252.120572,3.665083,252.120572,1.570688
Bus95,251.987907,-0.523588,251.987907,3.665202,251.987907,1.570807
Bus96,252.051618,-0.523645,252.051618,3.665145,252.051618,1.570750
Bus97,252.120572,-0.523708,252.120572,3.665083,252.120572,1.570688
Bus98,251.987017,-0.523587,251.987017,3.665203,251.987017,1.570808
Bus99,252.051618,-0.523645,252.051618,3.665145,252.051618,1.570750
Bus100,252.120572,-0.523708,252.120572,3.665083,252.120572,1.570688
Bus101,251.985788,-0.523586,251.985788,3.665204,251.985788,1.570809
Bus102,252.051618,-0.523645,252.051618,3.665145,252.051618,1.570750
Bus103,252.120572,-0.523708,252.120572,3.665083,252.120572,1.570688
Bus104,251.985766,-0.523586,251.985766,3.665204,251.985766,1.570809
Bus105,251.985088,-0.523585,251.985088,3.665205,251.985088,1.570810
Bus106,252.051618,-0.523645,252.051618,3.665145,252.051618,1.570750
Bus107,251.985739,-0.523586,251.985739,3.665204,251.985739,1.570809
Bus108,251.984691,-0.523585,251.984691,3.665205,251.984691,1.570810
Bus109,252.051618,-0.523645,252.051618,3.665145,252.051618,1.570750
Bus110,251.985708,-0.523586,251.985708,3.665204,251.985708,1.570809
Bus111,251.969034,-0.523571,251.969034,3.665220,251.969034,1.570824
Bus112,252.051618,-0.523645,252.051618,3.665145,252.051618,1.570750
Bus113,251.985661,-0.523586,251.985661,3.665204,251.985661,1.570809
Bus114,251.967465,-0.523569,251.967465,3.665221,251.967465,1.570826
Bus115,252.051618,-0.523645,252.051618,3.665145,252.051618,1.570750
Bus116,251.985601,-0.523586,251.985601,3.665204,251.985601,1.570809
Bus117,251.967403,-0.523569,251.967403,3.665221,251.967403,1.570826
Bus118,251.963165,-0.523566,251.963165,3.665224,251.963165,1.570829
Bus119,252.051618,-0.523645,252.051618,3.665145,252.051618,1.570750
Bus120,251.985557,-0.523586,251.985557,3.665204,251.985557,1.570809
Bus121,251.967403,-0.523569,251.967403,3.665221,251.967403,1.570826
Bus122,251.967373,-0.523569,251.967373,3.665221,251.967373,1.570826
Bus123,251.955411,-0.523561,251.955411,3.665229,251.955411,1.570834
Bus124,252.051618,-0.523645,252.051618,3.665145,252.051618,1.570750
Bus125,251.985496,-0.523586,251.985496,3.665204,251.985496,1.570809
Bus126,251.967403,-0.523569,251.967403,3.665221,251.967403,1.570826
Bus127,251.967232,-0.523569,251.967232,3.665221,251.967232,1.570826
Bus128,251.951924,-0.523559,251.951924,3.665231,251.951924,1.570836
Bus129,252.051618,-0.523645,252.051618,3.665145,252.051618,1.570750
Bus130,251.985430,-0.523586,251.985430,3.665204,251.985430,1.570809
Bus131,251.967403,-0.523569,251.967403,3.665221,251.967403,1.570826
Bus132,251.966954,-0.523569,251.966954,3.665221,251.966954,1.570826
Bus133,251.966912,-0.523569,251.966912,3.665221,251.966912,1.570826
Bus134,251.950887,-0.523558,251.950887,3.665232,251.950887,1.570837
Bus135,252.051618,-0.523645,252.051618,3.665145,252.051618,1.570750
Bus136,251.985367,-0.523586,251.985367,3.665204,251.985367,1.570809
Bus137,251.967403,-0.523569,251.967403,3.665221,251.967403,1.570826
Bus138,251.966930,-0.523569,251.966930,3.665221,251.966930,1.570826
Bus139,251.966674,-0.523570,251.966674,3.665221,251.966674,1.570826
Bus140,251.949716,-0.523557,251.949716,3.665233,251.949716,1.570838
Bus141,252.051618,-0.523645,252.051618,3.665145,252.051618,1.570750
Bus142,251.985265,-0.523586,251.985265,3.665204,251.985265,1.570809
Bus143,251.967403,-0.523569,251.967403,3.665221,251.967403,1.570826
Bus144,251.966907,-0.523569,251.966907,3.665221,251.966907,1.570826
Bus145,251.966515,-0.523570,251.966515,3.665221,251.966515,1.570826
Bus146,251.948614,-0.523556,251.948614,3.665234,251.948614,1.570839
Bus147,252.051618,-0.523645,252.051618,3.665145,252.051618,1.570750
Bus148,251.984776,-0.523586,251.984776,3.665204,251.984776,1.570809
Bus149,251.967403,-0.523569,251.967403,3.665221,251.967403,1.570826
Bus150,251.966888,-0.523569,251.966888,3.665221,251.966888,1.570826
Bus151,251.966428,-0.523570,251.966428,3.665221,251.966428,1.570826
Bus152,251.965865,-0.523569,251.965865,3.665221,251.965865,1.570826
Bus153,251.947329,-0.523556,251.947329,3.665235,251.947329,1.570840
Bus154,252.051618,-0.523645,252.051618,3.665145,252.051618,1.570750
Bus155,251.984669,-0.523586,251.984669,3.665204,251.984669,1.570809
Bus156,251.967403,-0.523569,251.967403,3.665221,251.967403,1.570826
Bus157,251.966860,-0.523569,251.966860,3.665221,251.966860,1.570826
Bus158,251.966196,-0.523570,251.966196,3.665221,251.966196,1.570825
Bus159,251.965826,-0.523569,251.965826,3.665221,251.965826,1.570826
Bus160,251.946959,-0.523555,251.946959,3.665235,251.946959,1.570840
Bus161,252.051618,-0.523645,252.051618,3.665145,252.051618,1.570750
Bus162,251.983850,-0.523585,251.983850,3.665205,251.983850,1.570810
Bus163,251.984325,-0.523586,251.984325,3.665204,251.984325,1.570809
Bus164,251.967403,-0.523569,251.967403,3.665221,251.967403,1.570826
Bus165,251.966825,-0.523569,251.966825,3.665221,251.966825,1.570826
Bus166,251.966115,-0.523570,251.966115,3.665220,251.966115,1.570825
Bus167,251.965790,-0.523569,251.965790,3.665221,251.965790,1.570826
Bus168,251.944858,-0.523554,251.944858,3.665236,251.944858,1.570841
Bus169,252.051618,-0.523645,252.051618,3.665145,252.051618,1.570750
Bus170,251.983696,-0.523585,251.983696,3.665205,251.983696,1.570810
Bus171,251.983868,-0.523586,251.983868,3.665204,251.983868,1.570809
Bus172,251.967403,-0.523569,251.967403,3.665221,251.967403,1.570826
Bus173,251.966799,-0.523569,251.966799,3.665221,251.966799,1.570826
Bus174,251.966115,-0.523570,251.966115,3.665220,251.966115,1.570825
Bus175,251.965463,-0.523569,251.965463,3.665221,251.965463,1.570826
Bus176,251.965774,-0.523569,251.965774,3.665221,251.965774,1.570826
Bus177,251.943672,-0.523553,251.943672,3.665237,251.943672,1.570842
Bus178,251.983376,-0.523585,251.983376,3.665205,251.983376,1.570810
Bus179,251.983819,-0.523586,251.983819,3.665204,251.983819,1.570809
Bus180,251.983502,-0.523586,251.983502,3.665204,251.983502,1.570809
Bus181,251.967403,-0.523569,251.967403,3.665221,251.967403,1.570826
Bus182,251.966769,-0.523569,251.966769,3.665221,251.966769,1.570826
Bus183,251.966115,-0.523570,251.966115,3.665220,251.966115,1.570825
Bus184,251.965392,-0.523569,251.965392,3.665221,251.965392,1.570826
Bus185,251.965742,-0.523569,251.965742,3.665221,251.965742,1.570826
Bus186,251.942791,-0.523553,251.942791,3.665238,251.942791,1.570843
Bus187,251.983626,-0.523587,251.983626,3.665204,251.983626,1.570809
Bus188,251.981989,-0.523585,251.981989,3.665206,251.981989,1.570810
Bus189,251.967403,-0.523569,251.967403,3.665221,251.967403,1.570826
Bus190,251.966741,-0.523569,251.966741,3.665221,251.966741,1.570826
Bus191,251.966115,-0.523570,251.966115,3.665220,251.966115,1.570825
Bus192,251.966115,-0.523570,251.966115,3.665220,251.966115,1.570825
Bus193,251.965324,-0.523569,251.965324,3.665221,251.965324,1.570826
Bus194,251.965660,-0.523569,251.965660,3.665221,251.965660,1.570826
Bus195,251.941999,-0.523552,251.941999,3.665238,251.941999,1.570843
Bus196,251.983283,-0.523587,251.983283,3.665204,251.983283,1.570808
Bus197,251.981842,-0.523584,251.981842,3.665206,251.981842,1.570811
Bus198,251.981904,-0.523585,251.981904,3.665206,251.981904,1.570811
Bus199,251.967403,-0.523569,251.967403,3.665221,251.967403,1.570826
Bus200,251.966711,-0.523569,251.966711,3.665221,251.966711,1.570826
...
SourceBus_1,6668.240414,-0.000037,6668.240414,4.188753,6668.240414,2.094358
LOAD1,252.103914,-0.523692,252.103914,3.665098,252.103914,1.570703
LOAD2,252.070687,-0.523662,252.070687,3.665128,252.070687,1.570733
LOAD3,252.102767,-0.523691,252.102767,3.665099,252.102767,1.570704
LOAD4,252.016153,-0.523613,252.016153,3.665177,252.016153,1.570782
LOAD5,252.015906,-0.523613,252.015906,3.665177,252.015906,1.570782
LOAD6,252.070673,-0.523662,252.070673,3.665128,252.070673,1.570733
LOAD7,251.983376,-0.523585,251.983376,3.665205,251.983376,1.570810
LOAD8,251.981468,-0.523584,251.981468,3.665206,251.981468,1.570811
LOAD9,251.980997,-0.523584,251.980997,3.665206,251.980997,1.570811
LOAD10,251.980879,-0.523585,251.980879,3.665206,251.980879,1.570811
LOAD11,251.980872,-0.523584,251.980872,3.665206,251.980872,1.570811
LOAD12,251.981368,-0.523584,251.981368,3.665206,251.981368,1.570811
LOAD13,251.964667,-0.523568,251.964667,3.665222,251.964667,1.570827
LOAD14,251.966190,-0.523568,251.966190,3.665222,251.966190,1.570827
LOAD15,251.964791,-0.523568,251.964791,3.665222,251.964791,1.570827
LOAD16,251.963953,-0.523568,251.963953,3.665223,251.963953,1.570828
LOAD17,251.964240,-0.523568,251.964240,3.665222,251.964240,1.570827
LOAD18,251.911924,-0.523529,251.911924,3.665261,251.911924,1.570866
LOAD19,251.928589,-0.523543,251.928589,3.665248,251.928589,1.570853
LOAD20,251.917999,-0.523534,251.917999,3.665256,251.917999,1.570861
LOAD21,251.933257,-0.523546,251.933257,3.665244,251.933257,1.570849
LOAD22,251.917911,-0.523534,251.917911,3.665256,251.917911,1.570861
LOAD23,251.908297,-0.523526,251.908297,3.665265,251.908297,1.570870
LOAD24,251.917133,-0.523535,251.917133,3.665256,251.917133,1.570860
LOAD25,251.885072,-0.523505,251.885072,3.665286,251.885072,1.570890
LOAD26,251.896376,-0.523521,251.896376,3.665269,251.896376,1.570874
LOAD27,251.911466,-0.523531,251.911466,3.665260,251.911466,1.570864
LOAD28,251.911116,-0.523530,251.911116,3.665260,251.911116,1.570865
LOAD29,251.880150,-0.523500,251.880150,3.665290,251.880150,1.570895
LOAD30,251.885236,-0.523505,251.885236,3.665285,251.885236,1.570890
LOAD31,251.880077,-0.523500,251.880077,3.665290,251.880077,1.570895
LOAD32,251.891837,-0.523518,251.891837,3.665273,251.891837,1.570877
LOAD33,251.877635,-0.523498,251.877635,3.665292,251.877635,1.570897
LOAD34,251.891326,-0.523510,251.891326,3.665280,251.891326,1.570885
LOAD35,251.877050,-0.523498,251.877050,3.665293,251.877050,1.570898
LOAD36,251.877307,-0.523498,251.877307,3.665293,251.877307,1.570897
LOAD37,251.877188,-0.523498,251.877188,3.665293,251.877188,1.570898
LOAD38,251.886809,-0.523514,251.886809,3.665276,251.886809,1.570881
LOAD39,251.880771,-0.523510,251.880771,3.665280,251.880771,1.570885
LOAD40,251.878298,-0.523509,251.878298,3.665282,251.878298,1.570887
LOAD41,251.864768,-0.523496,251.864768,3.665294,251.864768,1.570899
LOAD42,251.880582,-0.523510,251.880582,3.665280,251.880582,1.570885
LOAD43,251.859615,-0.523492,251.859615,3.665298,251.859615,1.570903
LOAD44,251.894396,-0.523519,251.894396,3.665271,251.894396,1.570876
LOAD45,251.864837,-0.523497,251.864837,3.665294,251.864837,1.570899
LOAD46,251.882998,-0.523511,251.882998,3.665279,251.882998,1.570884
LOAD47,251.859653,-0.523492,251.859653,3.665298,251.859653,1.570903
LOAD48,251.882930,-0.523511,251.882930,3.665279,251.882930,1.570884
LOAD49,251.882587,-0.523510,251.882587,3.665280,251.882587,1.570885
LOAD50,251.853795,-0.523487,251.853795,3.665304,251.853795,1.570909
LOAD51,251.871464,-0.523502,251.871464,3.665288,251.871464,1.570893
LOAD52,251.854970,-0.523488,251.854970,3.665302,251.854970,1.570907
LOAD53,251.853620,-0.523486,251.853620,3.665304,251.853620,1.570909
LOAD54,251.870941,-0.523502,251.870941,3.665288,251.870941,1.570893
LOAD55,251.854863,-0.523488,251.854863,3.665303,251.854863,1.570908
